cases/transmission/generated_cases/hourly_case_22.m
%% MATPOWER Case Format : Version 2
function mpc = case2383wp
mpc.version = '2';

%%-----  Power Flow Data  -----%%
%% system MVA base
mpc.baseMVA = 100;
%% bus data
%    bus_i    type    Pd    Qd    Gs    Bs    area    Vm    Va    baseKV    zone    Vmax    Vmin
mpc.bus = [
	1	1	0.0	0.0	0.0	0.0	1	1.0728395336324985	2.9145121281953887	220.0	1	1.11	0.95				
	2	1	0.0	0.0	0.0	0.0	1	1.0671084207299482	3.811352031917166	220.0	1	1.11	0.95				
	3	1	0.0	0.0	0.0	0.0	1	1.0448000488864284	-16.5574004566166	220.0	1	1.11	0.95				
	4	1	0.0	0.0	0.0	0.0	1	1.0608463510703072	-1.8326090807036077	220.0	1	1.11	0.95				
	5	1	0.0	0.0	0.0	0.0	1	1.0482096571746813	-9.062851187939348	220.0	1	1.11	0.95				
	6	1	0.0	0.0	0.0	0.0	1	1.0130181612868512	-4.9154768406615705	400.0	1	1.05	0.95				
	7	1	0.0	0.0	0.0	0.0	1	1.0446105407566926	-9.975995863170025	220.0	1	1.11	0.95				
	8	1	0.0	0.0	0.0	0.0	1	1.0173121349480245	-3.7248842289914346	400.0	1	1.05	0.95				
	9	1	0.0	0.0	0.0	0.0	1	1.021447706072026	-7.4518394065641065	400.0	1	1.05	0.95				
	10	2	8.561	6.3	0.0	0.0	1	1.0561503598696902	-13.412491580164087	220.0	1	1.11	0.95				
	11	1	0.0	0.0	0.0	0.0	1	1.0644509343183044	-0.9005109685680415	220.0	1	1.11	0.95				
	12	1	0.0	0.0	0.0	0.0	1	1.0504033781949225	-11.696299317310908	220.0	1	1.11	0.95				
	13	1	0.0	0.0	0.0	0.0	1	1.0467222510830914	-9.922385236971271	220.0	1	1.11	0.95				
	14	1	0.0	0.0	0.0	0.0	1	1.0537324342733339	0.7677402077583474	220.0	1	1.11	0.95				
	15	1	0.0	0.0	0.0	0.0	1	1.0117805618220854	-6.637904844425915	400.0	1	1.05	0.95				
	16	2	38.416	70.0	0.0	0.0	1	1.0737632507165435	3.268265549992773	220.0	1	1.11	0.95				
	17	2	53.89999999999999	104.99999999999999	0.0	0.0	1	1.0699358418640297	4.433625196559781	220.0	1	1.11	0.95				
	18	3	107.1	244.99999999999997	0.0	0.0	1	1.0053835321175042	-1.5329671385330375e-27	400.0	1	1.05	0.95				
	19	1	0.0	0.0	0.0	0.0	1	1.05243346809365	-10.977833929822218	220.0	1	1.11	0.95				
	20	1	0.0	0.0	0.0	0.0	1	1.0110875405404312	-0.5194133940460808	400.0	1	1.05	0.95				
	21	1	0.0	0.0	0.0	0.0	1	1.0455889005562475	-10.241370267864662	220.0	1	1.11	0.95				
	22	1	0.0	0.0	0.0	0.0	1	1.0642577884551367	-4.946579603810108	220.0	1	1.11	0.95				
	23	1	0.0	0.0	0.0	0.0	1	1.0409963634531978	-5.698075387865567	220.0	2	1.11	0.95				
	24	1	0.0	0.0	0.0	0.0	1	1.055909580220998	-2.306865455679991	220.0	2	1.11	0.95				
	25	1	0.0	0.0	0.0	0.0	1	1.0528477766110078	-1.2707524460479722	220.0	2	1.11	0.95				
	26	1	0.0	0.0	0.0	0.0	1	1.0363248804017402	-6.868964249768588	220.0	2	1.11	0.95				
	27	1	0.0	0.0	0.0	0.0	1	1.0480111799073573	-1.8227259863573453	220.0	2	1.11	0.95				
	28	1	0.0	0.0	0.0	0.0	1	1.0480063820639747	-1.817567639232174	220.0	2	1.11	0.95				
	29	2	18.186000000000003	42.0	0.0	0.0	1	1.0439073242721117	-5.847046324004726	220.0	2	1.11	0.95				
	30	2	18.186000000000003	42.0	0.0	0.0	1	1.0438505112821543	-5.848935795529759	220.0	2	1.11	0.95				
	31	2	14.686	35.0	0.0	0.0	1	1.0025183031116	-1.0472633720581384	400.0	2	1.05	0.95				
	32	1	0.0	0.0	0.0	0.0	1	1.0023881365655647	-1.0830591341689078	400.0	2	1.05	0.95				
	33	1	0.0	0.0	0.0	0.0	1	1.044412817705052	-2.3911176514404406	220.0	2	1.11	0.95				
	34	1	0.0	0.0	0.0	0.0	1	1.043268019596217	-0.8635338482441823	400.0	2	1.05	0.95				
	35	1	0.0	0.0	0.0	0.0	1	1.043306161349588	-0.8687142411775142	400.0	2	1.05	0.95				
	36	1	0.0	0.0	0.0	0.0	1	0.9890078600346904	-3.6073233263892686	400.0	2	1.05	0.95				
	37	1	0.0	0.0	0.0	0.0	1	1.041701632094413	-5.225210197497461	220.0	2	1.11	0.95				
	38	1	0.0	0.0	0.0	0.0	1	1.0416929387450466	-5.222767302271619	220.0	2	1.11	0.95				
	39	1	0.0	0.0	0.0	0.0	1	1.0080200113972995	-0.0001874410516731993	400.0	2	1.05	0.95				
	40	1	0.0	0.0	0.0	0.0	1	1.0080378414754128	0.007917490112047895	400.0	2	1.05	0.95				
	41	2	8.393	21.0	0.0	0.0	1	1.0561589885394056	0.25248998268730566	220.0	2	1.11	0.95				
	42	2	8.393	21.0	0.0	0.0	1	1.056135413746165	0.23870429300824805	220.0	2	1.11	0.95				
	43	2	16.786	42.0	0.0	0.0	1	1.0191576431383955	2.0605102751347655	400.0	2	1.05	0.95				
	44	2	16.786	42.0	0.0	0.0	1	1.019175986068319	2.0510083778757875	400.0	2	1.05	0.95				
	45	2	111.88799999999999	52.49999999999999	0.0	0.0	1	1.037123450719057	-6.198537657623308	220.0	2	1.11	0.95				
	46	1	0.0	0.0	0.0	0.0	1	1.037149446642115	-6.196490892273994	220.0	2	1.11	0.95				
	47	1	0.0	0.0	0.0	0.0	1	1.0470219487888233	-2.182255246993792	220.0	2	1.11	0.95				
	48	1	0.0	0.0	0.0	0.0	1	1.0396365844910407	-5.794360193505162	220.0	2	1.11	0.95				
	49	1	0.0	0.0	0.0	0.0	1	1.0396410438041739	-5.797824389758144	220.0	2	1.11	0.95				
	50	1	0.0	0.0	0.0	0.0	1	1.0275168731527415	0.363926835765586	400.0	2	1.05	0.95				
	51	1	0.0	0.0	0.0	0.0	1	1.0276277410110328	0.3510513023364743	400.0	2	1.05	0.95				
	52	1	0.0	0.0	0.0	0.0	1	1.0466576413944924	-2.9238011086540134	220.0	2	1.11	0.95				
	53	1	0.0	0.0	0.0	0.0	1	1.0478163009453212	-2.8831331545596304	220.0	2	1.11	0.95				
	54	1	0.0	0.0	0.0	0.0	1	1.0531479145867737	-1.2205693814460639	220.0	2	1.11	0.95				
	55	1	0.0	0.0	0.0	0.0	1	1.0428431918157692	-4.0381276300052935	220.0	2	1.11	0.95				
	56	1	0.0	0.0	0.0	0.0	1	1.0581843729642266	1.214651852406115	220.0	3	1.11	0.95				
	57	1	16.086	7.672	0.0	0.0	1	1.0723686424074101	1.0111549173453567	220.0	3	1.11	0.95				
	58	1	15.386	4.053	0.0	0.0	1	1.072524552717046	1.01040667933413	220.0	3	1.11	0.95				
	59	1	0.0	0.0	0.0	0.0	1	1.0831901939770936	8.70075602662542	220.0	3	1.11	0.95				
	60	1	0.0	0.0	0.0	0.0	1	1.0759550519920755	2.79145259873398	220.0	3	1.11	0.95				
	61	1	0.0	0.0	0.0	0.0	1	1.0935746752606186	10.946238051254879	220.0	3	1.11	0.95				
	62	1	0.0	0.0	0.0	0.0	1	1.0935819245802967	10.94966705182055	220.0	3	1.11	0.95				
	63	2	26.159	36.882999999999996	0.0	0.0	1	1.0816799136688475	8.562393276504318	220.0	3	1.11	0.95				
	64	2	24.758999999999993	38.724	0.0	0.0	1	1.078272627370522	8.258689395869332	220.0	3	1.11	0.95				
	65	1	9.373000000000001	1.4139999999999997	0.0	0.0	1	1.0798393483071524	6.939992355356826	220.0	3	1.11	0.95				
	66	1	0.0	0.0	0.0	0.0	1	1.0787175991535187	-2.2829567658105283	220.0	3	1.11	0.95				
	67	2	42.279999999999994	64.47	0.0	0.0	1	1.022720679910044	-0.8677854201846074	400.0	3	1.05	0.95				
	68	1	0.0	0.0	0.0	0.0	1	1.0790399838107132	-0.9077113377535962	220.0	3	1.11	0.95				
	69	1	0.0	0.0	0.0	0.0	1	1.0787782662366927	6.829494255222895	220.0	3	1.11	0.95				
	70	1	0.0	0.0	0.0	0.0	1	1.0608368565479063	2.030886976176874	220.0	3	1.11	0.95				
	71	1	0.0	0.0	0.0	0.0	1	1.069725564197899	5.6202427007905	220.0	3	1.11	0.95				
	72	1	0.0	0.0	0.0	0.0	1	1.069725564197899	5.6202427007905	220.0	3	1.11	0.95				
	73	1	0.0	0.0	0.0	0.0	1	1.062461365640111	2.516298463969676	220.0	3	1.11	0.95				
	74	1	0.0	0.0	0.0	0.0	1	1.0612929269834213	1.7623426417296695	220.0	3	1.11	0.95				
	75	1	0.0	0.0	0.0	0.0	1	1.0051950780499364	0.3652257097524639	400.0	3	1.05	0.95				
	76	1	0.0	0.0	0.0	0.0	1	1.0051534726842444	0.36488521981647404	400.0	3	1.05	0.95				
	77	1	0.0	0.0	0.0	0.0	1	1.0705815046880283	5.306152921025443	220.0	3	1.11	0.95				
	78	1	0.0	0.0	0.0	0.0	1	1.071062221280567	1.8353387467553464	220.0	3	1.11	0.95				
	79	1	0.0	0.0	0.0	0.0	1	1.07030755247098	6.12936800879401	220.0	3	1.11	0.95				
	80	1	0.0	0.0	0.0	0.0	1	1.0728119633667166	1.0469055039502089	220.0	3	1.11	0.95				
	81	1	0.0	0.0	0.0	0.0	1	1.0728289098958765	1.0478916103146076	220.0	3	1.11	0.95				
	82	1	0.0	0.0	0.0	0.0	1	1.0905389747003111	10.020965110470215	220.0	3	1.11	0.95				
	83	2	11.193	16.079	0.0	0.0	1	1.0795768556069771	6.876455171795049	220.0	3	1.11	0.95				
	84	2	11.052999999999997	15.589	0.0	0.0	1	1.0796731319637576	6.87963671241898	220.0	3	1.11	0.95				
	85	2	6.992999999999999	11.907	0.0	0.0	1	1.071141688118645	4.8160998886692274	220.0	3	1.11	0.95				
	86	2	6.992999999999999	11.661999999999999	0.0	0.0	1	1.0710551637868033	4.814176154930568	220.0	3	1.11	0.95				
	87	1	7.762999999999999	11.353999999999997	0.0	0.0	1	1.0635505458310177	4.066011900824953	220.0	3	1.11	0.95				
	88	1	0.0	0.0	0.0	0.0	1	1.0635607800627254	4.067812373577085	220.0	3	1.11	0.95				
	89	1	0.0	0.0	0.0	0.0	1	1.0650739574310337	4.772127009158706	220.0	3	1.11	0.95				
	90	1	0.0	0.0	0.0	0.0	1	1.0773138228637118	5.701965957643264	220.0	3	1.11	0.95				
	91	1	0.0	0.0	0.0	0.0	1	1.0802730850772255	7.441881964420201	220.0	3	1.11	0.95				
	92	1	0.0	0.0	0.0	0.0	1	0.9980975318859672	0.8872869280635222	400.0	3	1.05	0.95				
	93	2	6.992999999999999	11.472999999999999	0.0	0.0	1	1.0749598414134118	7.249804205987527	220.0	3	1.11	0.95				
	94	1	0.0	0.0	0.0	0.0	1	1.0749708631282366	7.245484468970959	220.0	3	1.11	0.95				
	95	2	4.823	5.705	0.0	0.0	1	1.0720295579951733	5.376492623646094	220.0	3	1.11	0.95				
	96	1	0.0	0.0	0.0	0.0	1	1.072031424017177	5.373189825738907	220.0	3	1.11	0.95				
	97	2	6.082999999999998	3.682	0.0	0.0	1	1.0922148534150946	5.293684628589113	220.0	3	1.11	0.95				
	98	1	0.0	0.0	0.0	0.0	1	1.017571055048567	0.8226967363420714	400.0	3	1.05	0.95				
	99	1	0.0	0.0	0.0	0.0	1	1.0176281582043303	0.828711562837235	400.0	3	1.05	0.95				
	100	1	0.0	0.0	0.0	0.0	1	1.011677824365959	0.8038294873251132	400.0	3	1.05	0.95				
	101	1	0.0	0.0	0.0	0.0	1	1.011744102925635	0.8007791134063921	400.0	3	1.05	0.95				
	102	1	0.0	0.0	0.0	0.0	1	1.0659852855543315	4.62861803032995	220.0	3	1.11	0.95				
	103	2	12.662999999999998	16.631999999999998	0.0	0.0	1	1.0725812486872028	4.8078134473498855	220.0	3	1.11	0.95				
	104	2	23.575999999999997	32.277	0.0	0.0	1	1.0727330000645579	4.817155447797833	220.0	3	1.11	0.95				
	105	2	23.645999999999997	44.065	0.0	0.0	1	0.9825424189034927	1.3729373405528242	400.0	3	1.05	0.95				
	106	1	0.0	0.0	0.0	0.0	1	0.9826953417283624	1.3672568739597313	400.0	3	1.05	0.95				
	107	1	0.0	0.0	0.0	0.0	1	1.0601150727376243	1.8243868911077699	220.0	3	1.11	0.95				
	108	1	0.0	0.0	0.0	0.0	1	1.06135412741091	1.9730856458789872	220.0	3	1.11	0.95				
	109	2	0.7	15.652	0.0	0.0	1	1.096205194460992	11.679167643947478	220.0	3	1.11	0.95				
	110	2	0.7	15.525999999999998	0.0	0.0	1	1.0962010280331553	11.682674581521615	220.0	3	1.11	0.95				
	111	2	18.542999999999996	12.6	0.0	0.0	1	1.0733553431251805	-6.945716960046704	220.0	4	1.11	0.95				
	112	1	0.0	0.0	0.0	0.0	1	1.0732967401135272	-6.93874410788957	220.0	4	1.11	0.95				
	113	1	0.0	0.0	0.0	0.0	1	1.0479745299779433	-15.544448616132122	220.0	4	1.11	0.95				
	114	1	0.0	0.0	0.0	0.0	1	1.053636553269355	-15.331486822186195	220.0	4	1.11	0.95				
	115	1	0.0	0.0	0.0	0.0	1	0.9718180913379654	-11.612275012513502	400.0	4	1.05	0.95				
	116	1	0.0	0.0	0.0	0.0	1	0.9718548757620075	-11.600010332530417	400.0	4	1.05	0.95				
	117	1	0.0	0.0	0.0	0.0	1	1.0732891806141625	-14.699867150843392	220.0	4	1.11	0.95				
	118	1	0.0	0.0	0.0	0.0	1	1.0495560012548057	-16.652370468397322	220.0	4	1.11	0.95				
	119	1	0.0	0.0	0.0	0.0	1	1.0495560012548057	-16.652370468397322	220.0	4	1.11	0.95				
	120	1	0.0	0.0	0.0	0.0	1	1.0464214709586388	-17.70659921030568	220.0	4	1.11	0.95				
	121	1	0.0	0.0	0.0	0.0	1	1.060140845392083	-15.013266720594164	220.0	4	1.11	0.95				
	122	1	0.0	0.0	0.0	0.0	1	1.060140845392083	-15.013266720594164	220.0	4	1.11	0.95				
	123	2	3.85	4.9	0.0	0.0	1	1.0775715233123007	-9.561127868493902	220.0	4	1.11	0.95				
	124	2	6.152999999999999	11.899999999999999	0.0	0.0	1	1.077564545534321	-9.556948040202437	220.0	4	1.11	0.95				
	125	2	24.990000000000002	12.809999999999999	0.0	0.0	1	1.0678145534816512	-14.554625569265502	220.0	4	1.11	0.95				
	126	1	17.696	11.129999999999999	0.0	0.0	1	1.0677488107620754	-14.542130833782357	220.0	4	1.11	0.95				
	127	2	17.997	10.709999999999999	0.0	0.0	1	1.0170076010039286	-8.03941824281422	400.0	4	1.05	0.95				
	128	1	0.0	0.0	0.0	0.0	1	1.0169752618474144	-8.052112875730272	400.0	4	1.05	0.95				
	129	1	0.0	0.0	0.0	0.0	1	1.0529349666174084	-17.00615751664509	220.0	4	1.11	0.95				
	130	1	0.0	0.0	0.0	0.0	1	1.0361074974160347	-17.9748647702914	220.0	4	1.11	0.95				
	131	2	48.068999999999996	48.99999999999999	0.0	0.0	1	1.0615538276191	-13.993003502761775	220.0	4	1.11	0.95				
	132	2	23.099999999999998	31.5	0.0	0.0	1	1.0615937871651013	-13.992575323936968	220.0	4	1.11	0.95				
	133	1	0.0	0.0	0.0	0.0	1	0.9619805342934148	-13.00766074252227	400.0	4	1.05	0.95				
	134	1	0.0	0.0	0.0	0.0	1	0.9619509350097109	-13.010307550943146	400.0	4	1.05	0.95				
	135	1	0.0	0.0	0.0	0.0	1	1.0495017270504077	-16.68449874785613	220.0	4	1.11	0.95				
	136	1	0.0	0.0	0.0	0.0	1	1.0495017270504077	-16.68449874785613	220.0	4	1.11	0.95				
	137	1	0.0	0.0	0.0	0.0	1	0.9909854743482753	-8.383904410699657	400.0	4	1.05	0.95				
	138	1	0.0	0.0	0.0	0.0	1	0.9909854743482753	-8.383904410699657	400.0	4	1.05	0.95				
	139	2	23.24	15.82	0.0	0.0	1	1.0774779387687807	-9.773433393493557	220.0	4	1.11	0.95				
	140	2	20.461	13.719999999999999	0.0	0.0	1	1.0774970667577146	-9.772106514182653	220.0	4	1.11	0.95				
	141	1	0.0	0.0	0.0	0.0	1	1.0664585783554663	-16.627083886960694	220.0	4	1.11	0.95				
	142	1	0.0	0.0	0.0	0.0	1	1.0476324611743693	-16.792889434941376	220.0	4	1.11	0.95				
	143	1	0.0	0.0	0.0	0.0	1	1.0753850861962648	-15.341573416004032	220.0	4	1.11	0.95				
	144	1	0.0	0.0	0.0	0.0	1	1.0753245053973433	-15.343190235314744	220.0	4	1.11	0.95				
	145	1	0.0	0.0	0.0	0.0	1	0.9730831181485563	-13.597933723935851	400.0	4	1.05	0.95				
	146	1	0.0	0.0	0.0	0.0	1	0.9730831181485563	-13.597933723935851	400.0	4	1.05	0.95				
	147	1	0.0	0.0	0.0	0.0	1	1.0447659466258055	-16.844954341640726	220.0	4	1.11	0.95				
	148	1	0.0	0.0	0.0	0.0	1	1.0448038629556564	-16.842193339546224	220.0	4	1.11	0.95				
	149	1	0.0	0.0	0.0	0.0	1	1.0726099417269832	-15.755165700442111	220.0	4	1.11	0.95				
	150	1	0.0	0.0	0.0	0.0	1	1.0508642368374181	-14.910448177955729	220.0	4	1.11	0.95				
	151	1	0.0	0.0	0.0	0.0	1	1.050886592154861	-14.915527088812029	220.0	4	1.11	0.95				
	152	1	0.0	0.0	0.0	0.0	1	1.050641134112271	-12.25646090231782	220.0	4	1.11	0.95				
	153	1	0.0	0.0	0.0	0.0	1	1.050641134112271	-12.25646090231782	220.0	4	1.11	0.95				
	154	1	0.0	0.0	0.0	0.0	1	1.0338787151495468	-17.798660772600982	220.0	4	1.11	0.95				
	155	1	0.0	0.0	0.0	0.0	1	1.0674131917445635	-12.243760655427401	220.0	5	1.11	0.95				
	156	1	0.0	0.0	0.0	0.0	1	1.1100000110058024	-10.820891725659779	220.0	5	1.11	0.95				
	157	1	0.0	0.0	0.0	0.0	1	1.017632837993538	-9.165020215479673	400.0	5	1.05	0.95				
	158	1	0.0	0.0	0.0	0.0	1	1.0176083507371307	-9.161974621108651	400.0	5	1.05	0.95				
	159	1	0.0	0.0	0.0	0.0	1	1.0194750141867155	-8.408414476324348	400.0	5	1.05	0.95				
	160	1	0.0	0.0	0.0	0.0	1	1.0195040588513848	-8.409349197047685	400.0	5	1.05	0.95				
	161	1	0.0	0.0	0.0	0.0	1	1.0681552031852974	-12.447558849167843	220.0	5	1.11	0.95				
	162	1	0.0	0.0	0.0	0.0	1	1.0681579751027797	-12.447414593628999	220.0	5	1.11	0.95				
	163	1	0.0	0.0	0.0	0.0	1	1.0983951734062718	-10.924678824621019	220.0	5	1.11	0.95				
	164	1	0.0	0.0	0.0	0.0	1	1.0983857354257887	-10.929473236452589	220.0	5	1.11	0.95				
	165	1	0.0	0.0	0.0	0.0	1	1.0049099470814096	-10.031367653584544	400.0	5	1.05	0.95				
	166	1	0.0	0.0	0.0	0.0	1	1.0766222498118159	-11.83957452311326	220.0	5	1.11	0.95				
	167	1	0.0	0.0	0.0	0.0	1	1.076655627288924	-11.837450602036986	220.0	5	1.11	0.95				
	168	1	0.0	0.0	0.0	0.0	1	1.02305363091635	-10.470229898686165	400.0	5	1.05	0.95				
	169	1	0.0	0.0	0.0	0.0	1	1.0230493504252178	-10.478386511066907	400.0	5	1.05	0.95				
	170	1	0.0	0.0	0.0	0.0	1	1.0478687789594623	-14.6785469772483	220.0	5	1.11	0.95				
	171	1	0.0	0.0	0.0	0.0	1	1.0478854969209275	-14.678567389614509	220.0	5	1.11	0.95				
	172	1	0.0	0.0	0.0	0.0	1	1.0757923418612334	-12.645500824324564	220.0	5	1.11	0.95				
	173	1	0.0	0.0	0.0	0.0	1	1.0757570771058949	-12.647365758044389	220.0	5	1.11	0.95				
	174	1	0.0	0.0	0.0	0.0	1	1.064191861552459	-12.683057961702447	220.0	5	1.11	0.95				
	175	1	0.0	0.0	0.0	0.0	1	1.064197054366298	-12.684489141672453	220.0	5	1.11	0.95				
	176	2	0.0	27.999999999999996	0.0	0.0	1	1.0136471000378842	-6.327887346162433	400.0	5	1.05	0.95				
	177	2	0.0	27.999999999999996	0.0	0.0	1	1.0136743202979261	-6.329811050796753	400.0	5	1.05	0.95				
	178	1	0.0	0.0	0.0	0.0	1	1.0878709049834292	-12.638345542594514	220.0	5	1.11	0.95				
	179	1	0.0	0.0	0.0	0.0	1	1.0878919897028636	-12.633963798064467	220.0	5	1.11	0.95				
	180	2	237.895	34.72	0.0	0.0	2	0.9633898750217718	-0.6589321725796624	400.0	6	1.05	0.95				
	181	2	0.0	0.0	0.0	0.0	3	1.0577581188608831	3.573395009291173	220.0	6	1.11	0.95				
	182	2	0.0	0.0	0.0	0.0	5	0.9624708241083515	-12.68743073107685	400.0	6	1.05	0.95				
	183	1	104.99999999999999	0.0	0.0	0.0	3	1.0500000104884535	-1.5289964960388236	400.0	6	1.05	0.95				
	184	2	222.13799999999995	35.209999999999994	0.0	0.0	2	1.0778306654099437	5.016561557854056	220.0	6	1.11	0.95				
	185	2	253.70099999999996	25.69	0.0	0.0	2	0.9631686814163225	-1.2529649678337251	400.0	6	1.05	0.95				
	186	2	23.330999999999996	0.7	0.0	0.0	5	1.0675874442884645	-14.641593408038526	220.0	6	1.11	0.95				
	187	1	4.984	1.0499999999999998	0.0	0.0	1	1.0534222667898698	-14.672982687748444	110.0	1	1.12	0.95				
	188	1	5.340999999999999	0.7	0.0	0.0	1	1.0289393302935612	-20.47136325603602	110.0	1	1.12	0.95				
	189	1	6.8389999999999995	6.089999999999999	0.0	0.0	1	1.0170445689743686	-15.699766771860913	110.0	1	1.12	0.95				
	190	1	4.284000000000001	1.0499999999999998	0.0	0.0	1	1.0926462214298032	0.09679917112635324	110.0	1	1.12	0.95				
	191	1	4.284000000000001	1.1199999999999999	0.0	0.0	1	1.080284707416496	-0.30937611374563023	110.0	1	1.12	0.95				
	192	2	21.391999999999996	8.399999999999999	0.0	0.0	1	1.0921428426332738	-11.569100355920268	110.0	1	1.12	0.95				
	193	1	10.695999999999998	2.0999999999999996	0.0	0.0	1	1.0924096659678557	-11.512649774890198	110.0	1	1.12	0.95				
	194	1	0.0	0.0	0.0	0.0	1	1.0911000852270392	-11.808163666942942	110.0	1	1.12	0.95				
	195	1	5.6979999999999995	1.4	0.0	0.0	1	1.070417078449078	-13.241169664030105	110.0	1	1.12	0.95				
	196	2	4.843999999999999	1.0499999999999998	0.0	0.0	1	1.0487571454756421	-18.794998304475868	110.0	1	1.12	0.95				
	197	1	4.843999999999999	1.0499999999999998	0.0	0.0	1	1.0724455836175464	-8.331499234852302	110.0	1	1.12	0.95				
	198	2	8.624	1.1900000000000002	0.0	0.0	1	1.0687302384485182	-13.405320853066279	110.0	1	1.12	0.95				
	199	1	1.001	0.35	0.0	0.0	1	1.1030724555074403	-1.6446419284707412	110.0	1	1.12	0.95				
	200	1	0.756	0.35	0.0	0.0	1	1.1040282419456064	-12.865001687346874	110.0	1	1.12	0.95				
...
];

%% generator data
%    bus    Pg    Qg    Qmax    Qmin    Vg    mBase    status    Pmax    Pmin    Pc1    Pc2    Qc1min    Qc1max    Qc2min    Qc2max    ramp_agc    ramp_10    ramp_30    ramp_q    apf
mpc.gen = [
	10	141.7429857334646	7.203879679198207	120.0	0.0	1.0	168.0	1	400.0	0.0	0.0	0.0	0.0	0.0	0.0	0.0	0.0	0.0	0.0	0.0	0.0				
	16	720.0000071928239	111.10154383474753	440.00000000000006	-40.0	1.0	823.0	1	720.0	0.0	0.0	0.0	0.0	0.0	0.0	0.0	0.0	0.0	0.0	0.0	0.0				
	17	1080.00001075547	152.75602157620787	660.0	-60.0	1.0	1234.0	1	1080.0	0.0	0.0	0.0	0.0	0.0	0.0	0.0	0.0	0.0	0.0	0.0	0.0				
	18	-9.77903487921124e-7	-139.99999997724342	1540.0	-140.0	1.0	2879.0	1	2520.0	0.0	0.0	0.0	0.0	0.0	0.0	0.0	0.0	0.0	0.0	0.0	0.0				
	29	-9.905975033330712e-7	-2.620555606960352e-7	240.0	0.0	1.0	511.0	1	400.0	0.0	0.0	0.0	0.0	0.0	0.0	0.0	0.0	0.0	0.0	0.0	0.0				
	30	-9.919109482217775e-7	-2.6314647332986665e-7	240.0	0.0	1.0	511.0	1	800.0	0.0	0.0	0.0	0.0	0.0	0.0	0.0	0.0	0.0	0.0	0.0	0.0				
	31	1000.0000099893905	-6.687720508502361e-7	350.0	0.0	1.0	420.0	1	1000.0	0.0	0.0	0.0	0.0	0.0	0.0	0.0	0.0	0.0	0.0	0.0	0.0				
	41	200.00000193827975	-8.586515343222085e-7	120.0	0.0	1.0	241.0	1	200.0	0.0	0.0	0.0	0.0	0.0	0.0	0.0	0.0	0.0	0.0	0.0	0.0				
	42	-9.88929531901044e-7	-8.584671925916224e-7	120.0	0.0	1.0	241.0	1	409.99999999999994	0.0	0.0	0.0	0.0	0.0	0.0	0.0	0.0	0.0	0.0	0.0	0.0				
	43	410.0000040873942	-9.119508121864084e-7	240.0	0.0	1.0	482.0	1	409.99999999999994	0.0	0.0	0.0	0.0	0.0	0.0	0.0	0.0	0.0	0.0	0.0	0.0				
	44	410.0000040816384	-9.120430022930569e-7	240.0	0.0	1.0	482.0	1	409.99999999999994	0.0	0.0	0.0	0.0	0.0	0.0	0.0	0.0	0.0	0.0	0.0	0.0				
	45	42.2000009962158	-3.089515756101881e-7	21.0	0.0	1.0	49.0	1	42.2	0.0	0.0	0.0	0.0	0.0	0.0	0.0	0.0	0.0	0.0	0.0	0.0				
	63	650.0000064879479	53.71712859318477	302.0	0.0	1.0	473.0	1	650.0	0.0	0.0	0.0	0.0	0.0	0.0	0.0	0.0	0.0	0.0	0.0	0.0				
	64	450.0000044814161	2.193766819379786	311.0	2.0	1.0	475.0	1	450.0	0.0	0.0	0.0	0.0	0.0	0.0	0.0	0.0	0.0	0.0	0.0	0.0				
	67	750.0000074848605	173.02937789094173	449.0	0.0	1.0	864.0	1	750.0	0.0	0.0	0.0	0.0	0.0	0.0	0.0	0.0	0.0	0.0	0.0	0.0				
	83	225.00000224099603	-88.9973892989779	190.0	-89.0	1.0	239.0	1	225.0	0.0	0.0	0.0	0.0	0.0	0.0	0.0	0.0	0.0	0.0	0.0	0.0				
	84	225.00000222935782	107.29591288942845	190.0	-89.0	1.0	251.0	1	225.0	0.0	0.0	0.0	0.0	0.0	0.0	0.0	0.0	0.0	0.0	0.0	0.0				
	85	120.00000113025087	95.6694630100314	125.0	-50.0	1.0	133.0	1	120.0	0.0	0.0	0.0	0.0	0.0	0.0	0.0	0.0	0.0	0.0	0.0	0.0				
	86	-9.713165164572954e-7	-49.9994524917213	125.0	-50.0	1.0	133.0	1	120.0	0.0	0.0	0.0	0.0	0.0	0.0	0.0	0.0	0.0	0.0	0.0	0.0				
	93	120.00000115109091	5.000005759180349	90.0	5.0	1.0	123.0	1	120.0	0.0	0.0	0.0	0.0	0.0	0.0	0.0	0.0	0.0	0.0	0.0	0.0				
	95	8.249089693711262e-7	27.000000172077023	68.0	27.0	1.0	105.0	1	110.00000000000001	0.0	0.0	0.0	0.0	0.0	0.0	0.0	0.0	0.0	0.0	0.0	0.0				
	97	87.60000099584899	27.000000047286726	68.0	27.0	1.0	105.0	1	87.6	0.0	0.0	0.0	0.0	0.0	0.0	0.0	0.0	0.0	0.0	0.0	0.0				
	103	-9.903697413217822e-7	-81.99868185578296	177.0	-82.0	1.0	239.0	1	400.0	0.0	0.0	0.0	0.0	0.0	0.0	0.0	0.0	0.0	0.0	0.0	0.0				
	104	184.44237832061873	146.14880832373868	379.0	-177.0	1.0	490.0	1	225.0	0.0	0.0	0.0	0.0	0.0	0.0	0.0	0.0	0.0	0.0	0.0	0.0				
	105	430.0000042159817	-165.0000004868615	353.0	-165.0	1.0	502.0	1	430.0	0.0	0.0	0.0	0.0	0.0	0.0	0.0	0.0	0.0	0.0	0.0	0.0				
	109	250.00000249583815	29.79381348362612	65.0	0.0	1.0	277.0	1	250.0	0.0	0.0	0.0	0.0	0.0	0.0	0.0	0.0	0.0	0.0	0.0	0.0				
	110	250.00000249583806	29.471551496828894	65.0	0.0	1.0	280.0	1	250.0	0.0	0.0	0.0	0.0	0.0	0.0	0.0	0.0	0.0	0.0	0.0	0.0				
	111	-9.815311334003863e-7	9.86949970270716e-5	270.0	0.0	1.0	401.0	1	360.0	0.0	0.0	0.0	0.0	0.0	0.0	0.0	0.0	0.0	0.0	0.0	0.0				
	123	-9.900134676130635e-7	4.416048600306226e-6	40.0	0.0	1.0	98.0	1	110.00000000000001	0.0	0.0	0.0	0.0	0.0	0.0	0.0	0.0	0.0	0.0	0.0	0.0				
	124	125.00000123603915	4.375540195180414e-6	90.0	0.0	1.0	132.0	1	125.0	0.0	0.0	0.0	0.0	0.0	0.0	0.0	0.0	0.0	0.0	0.0	0.0				
	125	-9.921437503839957e-7	79.44646292249175	360.0	0.0	1.0	654.0	1	860.0	0.0	0.0	0.0	0.0	0.0	0.0	0.0	0.0	0.0	0.0	0.0	0.0				
	127	690.0000068876533	2.8992778639433635e-8	360.0	0.0	1.0	540.0	1	690.0	0.0	0.0	0.0	0.0	0.0	0.0	0.0	0.0	0.0	0.0	0.0	0.0				
	131	-9.863688569456732e-7	0.0075348890069766765	360.0	0.0	1.0	696.0	1	1060.0	0.0	0.0	0.0	0.0	0.0	0.0	0.0	0.0	0.0	0.0	0.0	0.0				
	132	-9.899417133650056e-7	57.75157374156172	480.0	0.0	1.0	732.0	1	600.0	0.0	0.0	0.0	0.0	0.0	0.0	0.0	0.0	0.0	0.0	0.0	0.0				
	139	-9.867178919355883e-7	4.424850842914622e-6	360.0	0.0	1.0	714.0	1	600.0	0.0	0.0	0.0	0.0	0.0	0.0	0.0	0.0	0.0	0.0	0.0	0.0				
	140	200.00000197675524	4.4304332708928885e-6	120.0	0.0	1.0	240.0	1	200.0	0.0	0.0	0.0	0.0	0.0	0.0	0.0	0.0	0.0	0.0	0.0	0.0				
	176	600.0000059962402	-119.99967706059687	220.00000000000003	-120.0	1.0	430.0	1	600.0	0.0	0.0	0.0	0.0	0.0	0.0	0.0	0.0	0.0	0.0	0.0	0.0				
	177	200.00000199624023	-19.097032741318948	220.00000000000003	-120.0	1.0	430.0	1	200.0	0.0	0.0	0.0	0.0	0.0	0.0	0.0	0.0	0.0	0.0	0.0	0.0				
	180	0.0	-82.3075282428129	99999.0	-99999.0	1.0	7485.0	1	0.0	0.0	0.0	0.0	0.0	0.0	0.0	0.0	0.0	0.0	0.0	0.0	0.0				
	181	175.00000174602513	-6.570773161220956	99999.0	-99999.0	1.0	210.0	1	175.0	0.0	0.0	0.0	0.0	0.0	0.0	0.0	0.0	0.0	0.0	0.0	0.0				
	182	307.59000307220003	-7.772217661183121	99999.0	-99999.0	1.0	13465.0	1	307.59	0.0	0.0	0.0	0.0	0.0	0.0	0.0	0.0	0.0	0.0	0.0	0.0				
	184	0.0	42.57183228708696	99999.0	-99999.0	1.0	8353.0	1	0.0	0.0	0.0	0.0	0.0	0.0	0.0	0.0	0.0	0.0	0.0	0.0	0.0				
	185	0.0	-70.02007195609808	99999.0	-99999.0	1.0	14254.0	1	0.0	0.0	0.0	0.0	0.0	0.0	0.0	0.0	0.0	0.0	0.0	0.0	0.0				
	186	0.0	-4.819159996406802	99999.0	-99999.0	1.0	7401.0	1	0.0	0.0	0.0	0.0	0.0	0.0	0.0	0.0	0.0	0.0	0.0	0.0	0.0				
	192	95.0000009962319	4.207140036532196	50.0	0.0	1.0	114.0	1	95.0	0.0	0.0	0.0	0.0	0.0	0.0	0.0	0.0	0.0	0.0	0.0	0.0				
	196	0.9000009964584521	1.000000810075983	1.0	0.0	1.0	1.0	1	0.9000000000000001	0.0	0.0	0.0	0.0	0.0	0.0	0.0	0.0	0.0	0.0	0.0	0.0				
	198	0.8000009963322585	0.9999986551631639	1.0	0.0	1.0	1.0	1	0.8	0.0	0.0	0.0	0.0	0.0	0.0	0.0	0.0	0.0	0.0	0.0	0.0				
	205	15.000000996179738	9.999992277312158	10.0	0.0	1.0	18.0	1	15.0	0.0	0.0	0.0	0.0	0.0	0.0	0.0	0.0	0.0	0.0	0.0	0.0				
	213	11.000000996398516	7.999998719886698	8.0	0.0	1.0	13.0	1	11.0	0.0	0.0	0.0	0.0	0.0	0.0	0.0	0.0	0.0	0.0	0.0	0.0				
	264	2.500000996415785	6.49472040462171e-6	2.0	0.0	1.0	3.0	1	2.5	0.0	0.0	0.0	0.0	0.0	0.0	0.0	0.0	0.0	0.0	0.0	0.0				
	269	6.000000996294748	3.2528293998185824	5.0	0.0	1.0	7.0	1	6.0	0.0	0.0	0.0	0.0	0.0	0.0	0.0	0.0	0.0	0.0	0.0	0.0				
	277	70.00000099615234	37.38207411945119	42.0	0.0	1.0	84.0	1	70.0	0.0	0.0	0.0	0.0	0.0	0.0	0.0	0.0	0.0	0.0	0.0	0.0				
	278	60.00000099618086	10.055125936865792	40.0	0.0	1.0	72.0	1	60.0	0.0	0.0	0.0	0.0	0.0	0.0	0.0	0.0	0.0	0.0	0.0	0.0				
	279	60.000000996160296	20.1850100588975	40.0	0.0	1.0	72.0	1	60.0	0.0	0.0	0.0	0.0	0.0	0.0	0.0	0.0	0.0	0.0	0.0	0.0				
	281	120.00000119612638	41.1845190831489	90.0	0.0	1.0	144.0	1	120.0	0.0	0.0	0.0	0.0	0.0	0.0	0.0	0.0	0.0	0.0	0.0	0.0				
	282	40.00000099613833	31.143060932413352	40.0	0.0	1.0	48.0	1	40.0	0.0	0.0	0.0	0.0	0.0	0.0	0.0	0.0	0.0	0.0	0.0	0.0				
	289	2.500000996136812	2.999995250337963	3.0	0.0	1.0	3.0	1	2.5	0.0	0.0	0.0	0.0	0.0	0.0	0.0	0.0	0.0	0.0	0.0	0.0				
	294	2.0000009964140038	0.9999978280287046	1.0	0.0	1.0	2.0	1	2.0	0.0	0.0	0.0	0.0	0.0	0.0	0.0	0.0	0.0	0.0	0.0	0.0				
	314	1.5000009964200594	0.999991552260335	1.0	0.0	1.0	2.0	1	1.5	0.0	0.0	0.0	0.0	0.0	0.0	0.0	0.0	0.0	0.0	0.0	0.0				
	328	44.00000099623709	2.217533170388976	21.0	0.0	1.0	53.0	1	44.0	0.0	0.0	0.0	0.0	0.0	0.0	0.0	0.0	0.0	0.0	0.0	0.0				
	329	44.000000996312934	13.678103483225065	21.0	0.0	1.0	53.0	1	44.0	0.0	0.0	0.0	0.0	0.0	0.0	0.0	0.0	0.0	0.0	0.0	0.0				
	330	44.00000099621181	-5.109455216240303e-8	21.0	0.0	1.0	53.0	1	44.0	0.0	0.0	0.0	0.0	0.0	0.0	0.0	0.0	0.0	0.0	0.0	0.0				
	331	43.000000996310156	5.29551539869988	21.0	0.0	1.0	52.0	1	43.0	0.0	0.0	0.0	0.0	0.0	0.0	0.0	0.0	0.0	0.0	0.0	0.0				
	334	1.5000009963976915	5.828286607460552e-7	1.0	0.0	1.0	2.0	1	1.5	0.0	0.0	0.0	0.0	0.0	0.0	0.0	0.0	0.0	0.0	0.0	0.0				
	346	-9.739219233445352e-7	29.885389310635404	120.0	0.0	1.0	180.0	1	200.0	0.0	0.0	0.0	0.0	0.0	0.0	0.0	0.0	0.0	0.0	0.0	0.0				
	347	10.00000099637609	4.0378482489422736e-6	15.0	0.0	1.0	12.0	1	10.0	0.0	0.0	0.0	0.0	0.0	0.0	0.0	0.0	0.0	0.0	0.0	0.0				
	359	1.500000996327877	3.436066483704928e-6	1.0	0.0	1.0	2.0	1	1.5	0.0	0.0	0.0	0.0	0.0	0.0	0.0	0.0	0.0	0.0	0.0	0.0				
	365	5.100000996271737	2.9999986993159937	3.0	0.0	1.0	6.0	1	5.1	0.0	0.0	0.0	0.0	0.0	0.0	0.0	0.0	0.0	0.0	0.0	0.0				
	382	8.000000996319526	4.999998834302109	5.0	0.0	1.0	10.0	1	8.0	0.0	0.0	0.0	0.0	0.0	0.0	0.0	0.0	0.0	0.0	0.0	0.0				
	383	8.000000996316533	4.999999976579689	5.0	0.0	1.0	10.0	1	8.0	0.0	0.0	0.0	0.0	0.0	0.0	0.0	0.0	0.0	0.0	0.0	0.0				
	385	6.000000996348776	3.9999997761273067	4.0	0.0	1.0	7.0	1	6.0	0.0	0.0	0.0	0.0	0.0	0.0	0.0	0.0	0.0	0.0	0.0	0.0				
	390	4.500000996098721	2.999999365147068	3.0	0.0	1.0	5.0	1	4.5	0.0	0.0	0.0	0.0	0.0	0.0	0.0	0.0	0.0	0.0	0.0	0.0				
	395	10.000000996321736	3.0767336882081356e-7	8.0	0.0	1.0	12.0	1	10.0	0.0	0.0	0.0	0.0	0.0	0.0	0.0	0.0	0.0	0.0	0.0	0.0				
	404	3.000000996129036	3.0000001175112185	3.0	0.0	1.0	4.0	1	3.0	0.0	0.0	0.0	0.0	0.0	0.0	0.0	0.0	0.0	0.0	0.0	0.0				
	426	3.200000996464378	1.9999998524896843	2.0	0.0	1.0	4.0	1	3.2	0.0	0.0	0.0	0.0	0.0	0.0	0.0	0.0	0.0	0.0	0.0	0.0				
	444	1.0000009961681222	6.913233210402379e-6	1.0	0.0	1.0	1.0	1	1.0	0.0	0.0	0.0	0.0	0.0	0.0	0.0	0.0	0.0	0.0	0.0	0.0				
	451	4.500000996280118	2.9999992253491596	3.0	0.0	1.0	5.0	1	4.5	0.0	0.0	0.0	0.0	0.0	0.0	0.0	0.0	0.0	0.0	0.0	0.0				
	482	1.0000009961687955	0.9999980649147879	1.0	0.0	1.0	1.0	1	1.0	0.0	0.0	0.0	0.0	0.0	0.0	0.0	0.0	0.0	0.0	0.0	0.0				
	492	2.0000009963069387	0.4076940912341366	1.0	0.0	1.0	2.0	1	2.0	0.0	0.0	0.0	0.0	0.0	0.0	0.0	0.0	0.0	0.0	0.0	0.0				
	493	234.00000233620415	32.05881441695856	130.0	0.0	1.0	281.0	1	234.0	0.0	0.0	0.0	0.0	0.0	0.0	0.0	0.0	0.0	0.0	0.0	0.0				
	494	234.00000233623288	61.85065228680925	130.0	0.0	1.0	281.0	1	234.0	0.0	0.0	0.0	0.0	0.0	0.0	0.0	0.0	0.0	0.0	0.0	0.0				
	514	115.00000114632003	46.85648401952305	90.0	0.0	1.0	138.0	1	114.99999999999999	0.0	0.0	0.0	0.0	0.0	0.0	0.0	0.0	0.0	0.0	0.0	0.0				
	515	115.00000114631787	79.21652622347477	90.0	0.0	1.0	138.0	1	114.99999999999999	0.0	0.0	0.0	0.0	0.0	0.0	0.0	0.0	0.0	0.0	0.0	0.0				
	525	6.000000996269261	3.9999999386667042	4.0	0.0	1.0	7.0	1	6.0	0.0	0.0	0.0	0.0	0.0	0.0	0.0	0.0	0.0	0.0	0.0	0.0				
	536	6.00000099638375	5.999999537762532	6.0	0.0	1.0	7.0	1	6.0	0.0	0.0	0.0	0.0	0.0	0.0	0.0	0.0	0.0	0.0	0.0	0.0				
	537	3.500000996420875	1.5769221030782112	3.0	0.0	1.0	4.0	1	3.5000000000000004	0.0	0.0	0.0	0.0	0.0	0.0	0.0	0.0	0.0	0.0	0.0	0.0				
	556	2.7000009962849063	-6.599481754289093e-7	1.0	0.0	1.0	3.0	1	2.7	0.0	0.0	0.0	0.0	0.0	0.0	0.0	0.0	0.0	0.0	0.0	0.0				
	580	1.6000009962117923	-5.978644916189602e-7	1.0	0.0	1.0	2.0	1	1.6	0.0	0.0	0.0	0.0	0.0	0.0	0.0	0.0	0.0	0.0	0.0	0.0				
	584	2.700000996251827	-2.92113893056821e-7	2.0	0.0	1.0	3.0	1	2.7	0.0	0.0	0.0	0.0	0.0	0.0	0.0	0.0	0.0	0.0	0.0	0.0				
	585	4.000000996249941	-2.968825036100422e-7	2.0	0.0	1.0	5.0	1	4.0	0.0	0.0	0.0	0.0	0.0	0.0	0.0	0.0	0.0	0.0	0.0	0.0				
	607	0.800000996140624	0.0	0.0	0.0	1.0	1.0	1	0.8	0.0	0.0	0.0	0.0	0.0	0.0	0.0	0.0	0.0	0.0	0.0	0.0				
	612	-9.847248171079755e-7	70.15677733825456	120.0	0.0	1.0	256.0	1	200.0	0.0	0.0	0.0	0.0	0.0	0.0	0.0	0.0	0.0	0.0	0.0	0.0				
	613	-9.678084172548472e-7	0.001790387484345716	120.0	0.0	1.0	256.0	1	200.0	0.0	0.0	0.0	0.0	0.0	0.0	0.0	0.0	0.0	0.0	0.0	0.0				
	615	1.4000009961695057	-5.47171229981062e-7	1.0	0.0	1.0	2.0	1	1.4	0.0	0.0	0.0	0.0	0.0	0.0	0.0	0.0	0.0	0.0	0.0	0.0				
	623	7.600000996259107	-1.9695211094274447e-7	5.0	0.0	1.0	9.0	1	7.6	0.0	0.0	0.0	0.0	0.0	0.0	0.0	0.0	0.0	0.0	0.0	0.0				
	639	9.600000996215947	-5.792987178837077e-7	4.0	0.0	1.0	12.0	1	9.6	0.0	0.0	0.0	0.0	0.0	0.0	0.0	0.0	0.0	0.0	0.0	0.0				
	651	4.700000996241411	-5.505161521008482e-7	2.0	0.0	1.0	6.0	1	4.7	0.0	0.0	0.0	0.0	0.0	0.0	0.0	0.0	0.0	0.0	0.0	0.0				
	654	1.4000009961367377	-8.446662651161863e-7	1.0	0.0	1.0	2.0	1	1.4	0.0	0.0	0.0	0.0	0.0	0.0	0.0	0.0	0.0	0.0	0.0	0.0				
	664	6.20000099613547	-7.546789585544318e-7	6.0	0.0	1.0	7.0	1	6.2	0.0	0.0	0.0	0.0	0.0	0.0	0.0	0.0	0.0	0.0	0.0	0.0				
	670	2.700000996146222	-9.132691159490686e-7	2.0	0.0	1.0	3.0	1	2.7	0.0	0.0	0.0	0.0	0.0	0.0	0.0	0.0	0.0	0.0	0.0	0.0				
	674	1.0000009962901848	0.0	0.0	0.0	1.0	1.0	1	1.0	0.0	0.0	0.0	0.0	0.0	0.0	0.0	0.0	0.0	0.0	0.0	0.0				
	688	-9.867323917157215e-7	-7.950384744272179e-7	120.0	0.0	1.0	242.0	1	202.0	0.0	0.0	0.0	0.0	0.0	0.0	0.0	0.0	0.0	0.0	0.0	0.0				
	692	1.4000009962891167	5.501242429338751e-7	1.0	0.0	1.0	2.0	1	1.4	0.0	0.0	0.0	0.0	0.0	0.0	0.0	0.0	0.0	0.0	0.0	0.0				
	699	3.800000996158173	-9.1373175928627e-7	2.0	0.0	1.0	5.0	1	3.8	0.0	0.0	0.0	0.0	0.0	0.0	0.0	0.0	0.0	0.0	0.0	0.0				
	712	1.2000009962636085	-2.8105478985721307e-7	1.0	0.0	1.0	1.0	1	1.2	0.0	0.0	0.0	0.0	0.0	0.0	0.0	0.0	0.0	0.0	0.0	0.0				
	730	6.9000009961017765	-9.190801592195086e-7	3.0	0.0	1.0	8.0	1	6.9	0.0	0.0	0.0	0.0	0.0	0.0	0.0	0.0	0.0	0.0	0.0	0.0				
	732	1.1000009962359294	-8.745638609430543e-7	1.0	0.0	1.0	1.0	1	1.1	0.0	0.0	0.0	0.0	0.0	0.0	0.0	0.0	0.0	0.0	0.0	0.0				
	735	4.100000996226055	-5.551894746243911e-7	2.0	0.0	1.0	5.0	1	4.1	0.0	0.0	0.0	0.0	0.0	0.0	0.0	0.0	0.0	0.0	0.0	0.0				
	740	4.00000099599749	-9.345657067565545e-7	1.0	0.0	1.0	5.0	1	4.0	0.0	0.0	0.0	0.0	0.0	0.0	0.0	0.0	0.0	0.0	0.0	0.0				
	744	134.00000133591067	-9.245259823990857e-7	60.0	0.0	1.0	161.0	1	134.0	0.0	0.0	0.0	0.0	0.0	0.0	0.0	0.0	0.0	0.0	0.0	0.0				
	754	80.00000094930428	-8.17935450382785e-7	30.0	0.0	1.0	54.0	1	80.0	0.0	0.0	0.0	0.0	0.0	0.0	0.0	0.0	0.0	0.0	0.0	0.0				
	755	-9.885469688026864e-7	-7.965429333095647e-7	80.0	0.0	1.0	110.0	1	250.0	0.0	0.0	0.0	0.0	0.0	0.0	0.0	0.0	0.0	0.0	0.0	0.0				
	760	3.1000009962275774	-5.761039386528232e-7	2.0	0.0	1.0	4.0	1	3.1	0.0	0.0	0.0	0.0	0.0	0.0	0.0	0.0	0.0	0.0	0.0	0.0				
	766	2.1000009962395065	-4.0304249033710976e-7	1.0	0.0	1.0	3.0	1	2.1	0.0	0.0	0.0	0.0	0.0	0.0	0.0	0.0	0.0	0.0	0.0	0.0				
	784	0.7000009962527999	0.0	0.0	0.0	1.0	1.0	1	0.7	0.0	0.0	0.0	0.0	0.0	0.0	0.0	0.0	0.0	0.0	0.0	0.0				
	790	49.80000099606317	35.0	35.0	35.0	1.0	60.0	1	49.8	0.0	0.0	0.0	0.0	0.0	0.0	0.0	0.0	0.0	0.0	0.0	0.0				
	795	1.8900009959458297	1.0	1.0	1.0	1.0	2.0	1	1.8900000000000001	0.0	0.0	0.0	0.0	0.0	0.0	0.0	0.0	0.0	0.0	0.0	0.0				
	798	2.9900009960047567	3.0	3.0	3.0	1.0	4.0	1	2.99	0.0	0.0	0.0	0.0	0.0	0.0	0.0	0.0	0.0	0.0	0.0	0.0				
	814	44.92000099595917	11.271417732049681	42.0	0.0	1.0	54.0	1	44.92	0.0	0.0	0.0	0.0	0.0	0.0	0.0	0.0	0.0	0.0	0.0	0.0				
	834	-9.052352233901917e-7	76.26568043057166	83.0	0.0	1.0	110.0	1	55.00000000000001	0.0	0.0	0.0	0.0	0.0	0.0	0.0	0.0	0.0	0.0	0.0	0.0				
	878	2.9900009960284772	0.0	0.0	0.0	1.0	4.0	1	2.99	0.0	0.0	0.0	0.0	0.0	0.0	0.0	0.0	0.0	0.0	0.0	0.0				
	884	2.4900009960988023	0.0	0.0	0.0	1.0	3.0	1	2.49	0.0	0.0	0.0	0.0	0.0	0.0	0.0	0.0	0.0	0.0	0.0	0.0				
	892	31.870000996078268	23.140316666940848	42.0	6.0	1.0	38.0	1	31.869999999999997	0.0	0.0	0.0	0.0	0.0	0.0	0.0	0.0	0.0	0.0	0.0	0.0				
	895	8.960000995984954	7.000000000000001	7.000000000000001	7.000000000000001	1.0	11.0	1	8.96	0.0	0.0	0.0	0.0	0.0	0.0	0.0	0.0	0.0	0.0	0.0	0.0				
	901	3.6800009959325393	2.0	2.0	2.0	1.0	4.0	1	3.6799999999999997	0.0	0.0	0.0	0.0	0.0	0.0	0.0	0.0	0.0	0.0	0.0	0.0				
	910	4.5800009959629975	3.0	3.0	3.0	1.0	6.0	1	4.58	0.0	0.0	0.0	0.0	0.0	0.0	0.0	0.0	0.0	0.0	0.0	0.0				
	911	370.0000036788158	78.92072580199071	224.00000000000003	0.0	1.0	415.0	1	370.0	0.0	0.0	0.0	0.0	0.0	0.0	0.0	0.0	0.0	0.0	0.0	0.0				
	912	-9.779365792853442e-7	55.00205477526631	224.00000000000003	0.0	1.0	415.0	1	370.0	0.0	0.0	0.0	0.0	0.0	0.0	0.0	0.0	0.0	0.0	0.0	0.0				
	914	15.930000996020139	10.0	10.0	10.0	1.0	19.0	1	15.93	0.0	0.0	0.0	0.0	0.0	0.0	0.0	0.0	0.0	0.0	0.0	0.0				
	917	2.0900009960445227	0.0	0.0	0.0	1.0	3.0	1	2.09	0.0	0.0	0.0	0.0	0.0	0.0	0.0	0.0	0.0	0.0	0.0	0.0				
	919	21.910000995362232	12.0	12.0	12.0	1.0	26.0	1	21.91	0.0	0.0	0.0	0.0	0.0	0.0	0.0	0.0	0.0	0.0	0.0	0.0				
	920	1.9900009958307634	0.0	0.0	0.0	1.0	2.0	1	1.9900000000000002	0.0	0.0	0.0	0.0	0.0	0.0	0.0	0.0	0.0	0.0	0.0	0.0				
	929	63.73000099587222	29.000000731045045	50.0	28.999999999999996	1.0	77.0	1	63.73	0.0	0.0	0.0	0.0	0.0	0.0	0.0	0.0	0.0	0.0	0.0	0.0				
	959	2.4900009961804317	1.0	1.0	1.0	1.0	3.0	1	2.49	0.0	0.0	0.0	0.0	0.0	0.0	0.0	0.0	0.0	0.0	0.0	0.0				
	968	0.7000009962107065	0.0	0.0	0.0	1.0	1.0	1	0.7	0.0	0.0	0.0	0.0	0.0	0.0	0.0	0.0	0.0	0.0	0.0	0.0				
	993	3.9800009962664156	1.0	1.0	1.0	1.0	5.0	1	3.9800000000000004	0.0	0.0	0.0	0.0	0.0	0.0	0.0	0.0	0.0	0.0	0.0	0.0				
	994	1.990000996266418	1.0	1.0	1.0	1.0	2.0	1	1.9900000000000002	0.0	0.0	0.0	0.0	0.0	0.0	0.0	0.0	0.0	0.0	0.0	0.0				
	995	-9.88869594048375e-7	37.99999548454881	38.0	0.0	1.0	60.0	1	100.0	0.0	0.0	0.0	0.0	0.0	0.0	0.0	0.0	0.0	0.0	0.0	0.0				
	996	-9.862359994138057e-7	13.966197934780178	38.0	0.0	1.0	60.0	1	50.0	0.0	0.0	0.0	0.0	0.0	0.0	0.0	0.0	0.0	0.0	0.0	0.0				
	997	-9.88540170380821e-7	31.131314609471676	38.0	0.0	1.0	60.0	1	50.0	0.0	0.0	0.0	0.0	0.0	0.0	0.0	0.0	0.0	0.0	0.0	0.0				
	1004	4.280000996098486	3.0	3.0	3.0	1.0	5.0	1	4.28	0.0	0.0	0.0	0.0	0.0	0.0	0.0	0.0	0.0	0.0	0.0	0.0				
	1024	0.10000099618486756	0.0	0.0	0.0	1.0	0.0	1	0.1	0.0	0.0	0.0	0.0	0.0	0.0	0.0	0.0	0.0	0.0	0.0	0.0				
	1027	24.900000995998806	13.0	13.0	13.0	1.0	30.0	1	24.9	0.0	0.0	0.0	0.0	0.0	0.0	0.0	0.0	0.0	0.0	0.0	0.0				
	1028	2.9900009959995053	3.0	3.0	3.0	1.0	4.0	1	2.99	0.0	0.0	0.0	0.0	0.0	0.0	0.0	0.0	0.0	0.0	0.0	0.0				
	1029	24.900000995985064	14.000000000000002	14.000000000000002	14.000000000000002	1.0	30.0	1	24.9	0.0	0.0	0.0	0.0	0.0	0.0	0.0	0.0	0.0	0.0	0.0	0.0				
	1053	59.76000099596346	18.063705347150837	53.0	0.0	1.0	72.0	1	59.760000000000005	0.0	0.0	0.0	0.0	0.0	0.0	0.0	0.0	0.0	0.0	0.0	0.0				
	1054	29.880000996167606	20.960873807002923	31.0	0.0	1.0	36.0	1	29.880000000000003	0.0	0.0	0.0	0.0	0.0	0.0	0.0	0.0	0.0	0.0	0.0	0.0				
	1105	7.970000996061172	10.0	10.0	10.0	1.0	10.0	1	7.969999999999999	0.0	0.0	0.0	0.0	0.0	0.0	0.0	0.0	0.0	0.0	0.0	0.0				
	1106	22.910000996060365	13.0	13.0	13.0	1.0	28.0	1	22.91	0.0	0.0	0.0	0.0	0.0	0.0	0.0	0.0	0.0	0.0	0.0	0.0				
	1107	10.560000995927947	3.0	3.0	3.0	1.0	13.0	1	10.56	0.0	0.0	0.0	0.0	0.0	0.0	0.0	0.0	0.0	0.0	0.0	0.0				
	1138	44.820000995865385	29.54007186343673	41.0	0.0	1.0	54.0	1	44.82	0.0	0.0	0.0	0.0	0.0	0.0	0.0	0.0	0.0	0.0	0.0	0.0				
	1140	230.00000226825478	53.37740272833307	199.0	-87.0	1.0	252.0	1	229.99999999999997	0.0	0.0	0.0	0.0	0.0	0.0	0.0	0.0	0.0	0.0	0.0	0.0				
	1141	-9.838259842796522e-7	59.038511778514525	190.0	-89.0	1.0	251.0	1	225.0	0.0	0.0	0.0	0.0	0.0	0.0	0.0	0.0	0.0	0.0	0.0	0.0				
	1175	37.840000996122924	20.0	20.0	20.0	1.0	45.0	1	37.84	0.0	0.0	0.0	0.0	0.0	0.0	0.0	0.0	0.0	0.0	0.0	0.0				
	1182	-9.904472353928859e-7	-2.184131925752203	125.0	-50.0	1.0	133.0	1	120.0	0.0	0.0	0.0	0.0	0.0	0.0	0.0	0.0	0.0	0.0	0.0	0.0				
	1183	120.00000118897876	-6.987404610669083	125.0	-50.0	1.0	133.0	1	120.0	0.0	0.0	0.0	0.0	0.0	0.0	0.0	0.0	0.0	0.0	0.0	0.0				
	1184	-9.834627988414452e-7	70.95452364109191	125.0	-50.0	1.0	133.0	1	120.0	0.0	0.0	0.0	0.0	0.0	0.0	0.0	0.0	0.0	0.0	0.0	0.0				
	1191	106.56000106160522	20.117544087089527	129.0	-47.0	1.0	128.0	1	106.56000000000002	0.0	0.0	0.0	0.0	0.0	0.0	0.0	0.0	0.0	0.0	0.0	0.0				
	1192	250.00000249025095	54.0735817146361	125.0	-50.0	1.0	123.0	1	250.0	0.0	0.0	0.0	0.0	0.0	0.0	0.0	0.0	0.0	0.0	0.0	0.0				
	1201	99.59000099597507	0.08015199819796359	90.0	0.0	1.0	120.0	1	99.59	0.0	0.0	0.0	0.0	0.0	0.0	0.0	0.0	0.0	0.0	0.0	0.0				
	1202	99.59000099597507	30.151028725798685	90.0	0.0	1.0	120.0	1	99.59	0.0	0.0	0.0	0.0	0.0	0.0	0.0	0.0	0.0	0.0	0.0	0.0				
	1203	99.59000099599072	7.5938804422310175	90.0	0.0	1.0	120.0	1	99.59	0.0	0.0	0.0	0.0	0.0	0.0	0.0	0.0	0.0	0.0	0.0	0.0				
	1232	51.79000099607182	8.735132076378775	41.0	0.0	1.0	62.0	1	51.790000000000006	0.0	0.0	0.0	0.0	0.0	0.0	0.0	0.0	0.0	0.0	0.0	0.0				
	1233	14.940000996098407	3.3900799428630988	41.0	0.0	1.0	18.0	1	14.940000000000001	0.0	0.0	0.0	0.0	0.0	0.0	0.0	0.0	0.0	0.0	0.0	0.0				
	1244	18.920000996013002	20.0	20.0	20.0	1.0	23.0	1	18.92	0.0	0.0	0.0	0.0	0.0	0.0	0.0	0.0	0.0	0.0	0.0	0.0				
	1247	15.93000099601122	12.0	12.0	12.0	1.0	19.0	1	15.93	0.0	0.0	0.0	0.0	0.0	0.0	0.0	0.0	0.0	0.0	0.0	0.0				
	1250	197.19000196785979	32.113422957168034	151.0	0.0	1.0	237.0	1	197.19	0.0	0.0	0.0	0.0	0.0	0.0	0.0	0.0	0.0	0.0	0.0	0.0				
	1268	0.5000009960807968	0.0	0.0	0.0	1.0	1.0	1	0.5	0.0	0.0	0.0	0.0	0.0	0.0	0.0	0.0	0.0	0.0	0.0	0.0				
	1316	1.000000996128402	0.0	0.0	0.0	1.0	1.0	1	1.0	0.0	0.0	0.0	0.0	0.0	0.0	0.0	0.0	0.0	0.0	0.0	0.0				
	1325	1.3900009959984765	0.0	0.0	0.0	1.0	2.0	1	1.39	0.0	0.0	0.0	0.0	0.0	0.0	0.0	0.0	0.0	0.0	0.0	0.0				
	1349	1.4900009963611378	0.0	0.0	0.0	1.0	2.0	1	1.49	0.0	0.0	0.0	0.0	0.0	0.0	0.0	0.0	0.0	0.0	0.0	0.0				
	1356	1.0000009960262095	2.0	2.0	2.0	1.0	1.0	1	1.0	0.0	0.0	0.0	0.0	0.0	0.0	0.0	0.0	0.0	0.0	0.0	0.0				
	1359	0.800000996131201	1.0	1.0	1.0	1.0	1.0	1	0.8	0.0	0.0	0.0	0.0	0.0	0.0	0.0	0.0	0.0	0.0	0.0	0.0				
	1393	12.75000099609478	-8.638338856523165e-7	11.0	0.0	1.0	15.0	1	12.75	0.0	0.0	0.0	0.0	0.0	0.0	0.0	0.0	0.0	0.0	0.0	0.0				
	1403	4.280000995970067	1.0	1.0	1.0	1.0	5.0	1	4.28	0.0	0.0	0.0	0.0	0.0	0.0	0.0	0.0	0.0	0.0	0.0	0.0				
	1416	334.7287974729975	30.09037238966596	180.0	10.0	1.0	246.0	1	371.0	0.0	0.0	0.0	0.0	0.0	0.0	0.0	0.0	0.0	0.0	0.0	0.0				
	1417	-9.224840816909977e-7	19.781374916935345	120.0	5.0	1.0	123.0	1	120.0	0.0	0.0	0.0	0.0	0.0	0.0	0.0	0.0	0.0	0.0	0.0	0.0				
	1418	-9.730960619419325e-7	5.000004994192206	90.0	5.0	1.0	123.0	1	20.0	0.0	0.0	0.0	0.0	0.0	0.0	0.0	0.0	0.0	0.0	0.0	0.0				
	1426	-9.64012600016472e-7	27.00000015383833	68.0	27.0	1.0	106.0	1	495.0	0.0	0.0	0.0	0.0	0.0	0.0	0.0	0.0	0.0	0.0	0.0	0.0				
	1429	0.20000099607989358	0.0	0.0	0.0	1.0	0.0	1	0.2	0.0	0.0	0.0	0.0	0.0	0.0	0.0	0.0	0.0	0.0	0.0	0.0				
	1469	0.6000009961230811	0.0	0.0	0.0	1.0	1.0	1	0.6	0.0	0.0	0.0	0.0	0.0	0.0	0.0	0.0	0.0	0.0	0.0	0.0				
	1475	2.0900009959941976	2.0	2.0	2.0	1.0	3.0	1	2.09	0.0	0.0	0.0	0.0	0.0	0.0	0.0	0.0	0.0	0.0	0.0	0.0				
	1504	31.170000996066637	2.0	2.0	2.0	1.0	37.0	1	31.17	0.0	0.0	0.0	0.0	0.0	0.0	0.0	0.0	0.0	0.0	0.0	0.0				
	1505	48.80000099604992	4.0	4.0	4.0	1.0	59.0	1	48.8	0.0	0.0	0.0	0.0	0.0	0.0	0.0	0.0	0.0	0.0	0.0	0.0				
	1514	2.2900009936711254	1.0	1.0	1.0	1.0	3.0	1	2.29	0.0	0.0	0.0	0.0	0.0	0.0	0.0	0.0	0.0	0.0	0.0	0.0				
	1534	0.30000099602597496	0.0	0.0	0.0	1.0	0.0	1	0.3	0.0	0.0	0.0	0.0	0.0	0.0	0.0	0.0	0.0	0.0	0.0	0.0				
	1536	-9.881118790646387e-7	35.61310979580846	190.0	-89.0	1.0	251.0	1	225.0	0.0	0.0	0.0	0.0	0.0	0.0	0.0	0.0	0.0	0.0	0.0	0.0				
	1537	225.0000022387696	40.94580877128441	202.99999999999997	-95.0	1.0	255.0	1	225.0	0.0	0.0	0.0	0.0	0.0	0.0	0.0	0.0	0.0	0.0	0.0	0.0				
	1538	215.00000212647018	30.13058874772412	190.0	-89.0	1.0	255.0	1	215.0	0.0	0.0	0.0	0.0	0.0	0.0	0.0	0.0	0.0	0.0	0.0	0.0				
	1542	8.960000996049425	3.0	3.0	3.0	1.0	11.0	1	8.96	0.0	0.0	0.0	0.0	0.0	0.0	0.0	0.0	0.0	0.0	0.0	0.0				
	1543	1.2000009960623315	0.0	0.0	0.0	1.0	1.0	1	1.2	0.0	0.0	0.0	0.0	0.0	0.0	0.0	0.0	0.0	0.0	0.0	0.0				
	1550	1.7900009959941263	1.0	1.0	1.0	1.0	2.0	1	1.79	0.0	0.0	0.0	0.0	0.0	0.0	0.0	0.0	0.0	0.0	0.0	0.0				
	1566	54.77000099605607	20.000013327315752	47.0	20.0	1.0	66.0	1	54.77000000000001	0.0	0.0	0.0	0.0	0.0	0.0	0.0	0.0	0.0	0.0	0.0	0.0				
	1587	63.74000099600073	27.0	27.0	27.0	1.0	77.0	1	63.739999999999995	0.0	0.0	0.0	0.0	0.0	0.0	0.0	0.0	0.0	0.0	0.0	0.0				
	1600	17.43000099591268	3.0	3.0	3.0	1.0	21.0	1	17.43	0.0	0.0	0.0	0.0	0.0	0.0	0.0	0.0	0.0	0.0	0.0	0.0				
	1602	-9.665200241810882e-7	11.545973741676713	90.0	0.0	1.0	144.0	1	120.0	0.0	0.0	0.0	0.0	0.0	0.0	0.0	0.0	0.0	0.0	0.0	0.0				
	1603	120.00000111022358	75.39979960814567	90.0	0.0	1.0	144.0	1	120.0	0.0	0.0	0.0	0.0	0.0	0.0	0.0	0.0	0.0	0.0	0.0	0.0				
	1609	0.3000009965120003	0.0	0.0	0.0	1.0	0.0	1	0.3	0.0	0.0	0.0	0.0	0.0	0.0	0.0	0.0	0.0	0.0	0.0	0.0				
	1617	2.0000009963367176	0.0	0.0	0.0	1.0	2.0	1	2.0	0.0	0.0	0.0	0.0	0.0	0.0	0.0	0.0	0.0	0.0	0.0	0.0				
	1620	1.6000009963384294	0.0	0.0	0.0	1.0	2.0	1	1.6	0.0	0.0	0.0	0.0	0.0	0.0	0.0	0.0	0.0	0.0	0.0	0.0				
...
];

%% branch data
%    f_bus    t_bus    r    x    b    rateA    rateB    rateC    ratio    angle    status    angmin    angmax
mpc.branch = [
	16	1	0.00155	0.01169	0.0182	160.0	160.0	160.0	0	0	1	-60.0001403060998	60.0001403060998	60.920949342583555	-0.45437161918833935	-60.87105062872612	-1.2658919871668946				
	355	1	0.00157	0.06612	0.0	160.0	160.0	160.0	1.0099	0.0	1	-60.0001403060998	60.0001403060998	-60.82048685304598	0.8635837121773565	60.87105062872612	1.2658919871668946				
	17	2	0.00155	0.01169	0.0182	160.0	160.0	160.0	0	0	1	-60.0001403060998	60.0001403060998	107.6866388128296	11.134079073068031	-107.5276169741029	-12.012716234304053				
	354	2	0.00157	0.06612	0.0	160.0	160.0	160.0	1.022	0.0	1	-60.0001403060998	60.0001403060998	-107.36621479402673	-5.215319962561445	107.5276169741029	12.012716234304053				
	10	3	0.01068	0.07895	0.1226	274.0	274.0	274.0	0	0	1	-60.0001403060998	60.0001403060998	77.59735055785211	-0.04598383847950906	-77.01641512962796	-9.188836601369688				
	219	3	0.00165	0.06736	0.0	160.0	160.0	160.0	1.027	0.0	1	-60.0001403060998	60.0001403060998	-29.069451542842117	-10.152500942281343	29.083982642085388	10.745722060479409				
	220	3	0.00165	0.06736	0.0	160.0	160.0	160.0	0.9955	0.0	1	-60.0001403060998	60.0001403060998	-47.89766811018837	2.9761148279448264	47.932432487542556	-1.5568854591097185				
	7	4	0.01674	0.09711	0.14423	377.0	377.0	377.0	0	0	1	-60.0001403060998	60.0001403060998	-157.97768349867033	13.404970095297063	161.87569825500893	-6.777348435246751				
	11	4	0.00293	0.01599	0.02478	335.0	335.0	335.0	0	0	1	-60.0001403060998	60.0001403060998	115.56909474142172	2.3494285577361196	-115.22334841974167	-3.260794564885732				
	14	4	0.00442	0.03223	0.04985	463.99999999999994	463.99999999999994	463.99999999999994	0	0	1	-60.0001403060998	60.0001403060998	151.80089632683726	-43.27238837313726	-150.81828940740465	44.864816295345996				
	16	4	0.00888	0.06665	0.08896	377.0	377.0	377.0	0	0	1	-60.0001403060998	60.0001403060998	152.91287545117248	2.0766844578677195	-151.10800036332836	1.3358848896153375				
	22	4	0.00783	0.043	0.04962	350.0	350.0	350.0	0	0	1	-60.0001403060998	60.0001403060998	-135.88042241214572	34.25299327478309	137.25177021645146	-32.32416076378924				
	245	4	0.00165	0.06901	0.0	160.0	160.0	160.0	1.0594	0.0	1	-60.0001403060998	60.0001403060998	-73.32588527944748	-5.6881079298666455	73.40608701653998	9.0424848248694				
	246	4	0.00165	0.06901	0.0	160.0	160.0	160.0	1.0448	0.0	1	-60.0001403060998	60.0001403060998	-44.58446496114266	14.20327032427193	44.616082702474316	-12.880882245909014				
	5	6	0.00064	0.0305	0.0	400.0	400.0	400.0	1.0435	-0.6	1	-60.0001403060998	60.0001403060998	-206.79597974793654	-17.278693070033267	207.06911274194923	30.29518731595122				
	7	5	0.00525	0.03988	0.06195	381.0	381.0	381.0	0	0	1	-60.0001403060998	60.0001403060998	-44.18625347331297	-6.641907831177443	44.28069981616826	0.575955659465245				
	10	5	0.01459	0.11219	0.16553	381.0	381.0	381.0	0	0	1	-60.0001403060998	60.0001403060998	-72.27580310594597	10.484671519190373	73.00991676853799	-23.16549673271842				
	309	5	0.00165	0.0686	0.0	160.0	160.0	160.0	1.0646	0.0	1	-60.0001403060998	60.0001403060998	-44.67360040442711	-27.341385962917347	44.71636147011232	29.11920966352641				
	309	5	0.00165	0.0686	0.0	160.0	160.0	160.0	1.0523	0.0	1	-60.0001403060998	60.0001403060998	-44.75714135650233	-9.4244068483464	44.78900169311796	10.749024479760031				
	6	8	0.00112	0.01329	0.34125	1316.0	1316.0	1316.0	0	0	1	-60.0001403060998	60.0001403060998	-162.58488867604746	-34.86429683068834	162.87667453459628	3.15862188397625				
	6	9	0.00299	0.03675	0.9184	1427.0	1427.0	1427.0	0	0	1	-60.0001403060998	60.0001403060998	122.12688026926305	-77.53745099636801	-121.66535906254674	-11.824256568410064				
	15	6	0.00298	0.03417	0.93504	1427.0	1427.0	1427.0	0	0	1	-60.0001403060998	60.0001403060998	-89.6788423820992	-42.34830129612756	89.9138386712967	-50.79431846369117				
	31	6	0.0015	0.01506	0.4032	1385.0	1385.0	1385.0	0	0	1	-60.0001403060998	60.0001403060998	445.08071945904913	-119.1255479366103	-441.97830108353884	109.32385376441269				
	310	6	0.0015	0.06188	0.0	250.0	250.0	250.0	1.0613	0.0	1	-60.0001403060998	60.0001403060998	-184.9425128210846	-2.502955583164078	185.4533580770773	23.577025210383596				
	12	7	0.01211	0.08742	0.14017	381.0	381.0	381.0	0	0	1	-60.0001403060998	60.0001403060998	-35.94811497105937	4.773122611423666	36.10711601713523	-19.00588431915347				
	13	7	0.00205	0.01326	0.02243	335.0	335.0	335.0	0	0	1	-60.0001403060998	60.0001403060998	10.053001191325265	13.890155041299787	-10.046833308224011	-16.30279891725158				
	19	7	0.0057	0.0407	0.06021	323.0	323.0	323.0	0	0	1	-60.0001403060998	60.0001403060998	-43.485097135984596	23.397262304157625	43.61918307573639	-29.059411494061756				
	21	7	0.00093	0.00651	0.01113	160.0	160.0	160.0	0	0	1	-60.0001403060998	60.0001403060998	-73.92933998233127	25.846601669561213	73.98178730013616	-26.69512651453462				
	29	7	0.01269	0.07498	0.1302	362.0	362.0	362.0	0	0	1	-60.0001403060998	60.0001403060998	102.25975937051518	-21.60550340273532	-101.01751823666257	14.747387769003574				
	321	7	0.00041	0.03368	0.0	250.0	250.0	250.0	1.0323	0.0	1	-60.0001403060998	60.0001403060998	-82.72670782409696	-7.860165793419332	82.75281395344814	10.004688809389945				
	322	7	0.00165	0.06775	0.0	160.0	160.0	160.0	1.0569	0.0	1	-60.0001403060998	60.0001403060998	-76.62465970349537	-53.68756504871048	76.76738817041394	59.548082402488276				
	8	18	0.00336	0.03977	1.02163	1316.0	1316.0	1316.0	0	0	1	-60.0001403060998	60.0001403060998	-162.87667453459628	-3.15862188397625	163.81817938606846	-90.19588281284081				
	332	9	0.00087	0.05244	-0.02144	330.0	330.0	330.0	1.0781	0.0	1	-60.0001403060998	60.0001403060998	-121.54097332036041	-2.099934862813637	121.66535906254674	11.824256568410064				
	171	10	0.01409	0.10413	0.15972	463.99999999999994	463.99999999999994	463.99999999999994	0	0	1	-60.0001403060998	60.0001403060998	-24.132096700501545	-13.561446514056685	24.209769944302742	-3.541672734384234				
	346	10	0.00124	0.06839	0.0	160.0	160.0	160.0	1.0054	0.0	1	-60.0001403060998	60.0001403060998	-58.8404459939621	15.635042319198488	58.88098263906074	-13.39931557863618				
	347	10	0.00124	0.06839	0.0	160.0	160.0	160.0	1.024	0.0	1	-60.0001403060998	60.0001403060998	-44.74679475403137	-6.143670899129514	44.769685698194984	7.4061803115077565				
	16	11	0.0057	0.03952	0.07553	463.99999999999994	463.99999999999994	463.99999999999994	0	0	1	-60.0001403060998	60.0001403060998	210.6138600123133	-1.777632343362459	-208.42056692511696	8.35129738376911				
	17	11	0.0057	0.03952	0.07553	463.99999999999994	463.99999999999994	463.99999999999994	0	0	1	-60.0001403060998	60.0001403060998	266.30658755955363	-15.403614986632627	-262.769267106738	31.326855237856343				
	111	11	0.01068	0.06196	0.09496	394.0	394.0	394.0	0	0	1	-60.0001403060998	60.0001403060998	-184.2939811087651	51.976115132924086	187.74842126035477	-42.78506731738304				
	352	11	0.00165	0.06901	0.0	160.0	160.0	160.0	1.0412	0.0	1	-60.0001403060998	60.0001403060998	-90.01492054913533	16.951733955227084	90.1352988983134	-11.91700069657211				
	353	11	0.00165	0.06901	0.0	160.0	160.0	160.0	1.0559	0.0	1	-60.0001403060998	60.0001403060998	-77.64667862752715	-8.896063684619124	77.73701913176507	12.674486834593573				
	140	12	0.01465	0.10589	0.17085	463.99999999999994	463.99999999999994	463.99999999999994	0	0	1	-60.0001403060998	60.0001403060998	39.03942121046007	12.853231487921107	-38.781677322980244	-30.333448022557196				
	359	12	0.00155	0.06612	0.0	160.0	160.0	160.0	1.0395	0.0	1	-60.0001403060998	60.0001403060998	-51.15939126317011	-6.009034473303247	51.19702792917099	7.614541799740386				
	360	12	0.00157	0.06612	0.0	160.0	160.0	160.0	1.059	0.0	1	-60.0001403060998	60.0001403060998	-23.520301632362088	-17.42091999780591	23.53276436486861	17.945783611393146				
	29	13	0.01345	0.08114	0.14113	339.0	339.0	339.0	0	0	1	-60.0001403060998	60.0001403060998	93.11038679489634	-23.340478737009246	-92.01012801624285	14.556961793142435				
	365	13	0.00165	0.06901	0.0	160.0	160.0	160.0	1.0312	0.0	1	-60.0001403060998	60.0001403060998	-34.86875749016759	0.24020320688074698	34.88709116338732	0.5265887863881333				
	366	13	0.00165	0.06901	0.0	160.0	160.0	160.0	0.9872	0.0	1	-60.0001403060998	60.0001403060998	-47.02402681703806	30.897990686530864	47.070035661530255	-28.973705620830355				
	17	14	0.00384	0.02853	0.04588	463.99999999999994	463.99999999999994	463.99999999999994	0	0	1	-60.0001403060998	60.0001403060998	257.27206854308344	31.59832701958599	-255.0125323703719	-19.983912595012857				
	367	14	0.00157	0.06798	0.0	160.0	160.0	160.0	1.0664	0.0	1	-60.0001403060998	60.0001403060998	-60.91354884292463	-26.10114268389231	60.977924693158755	28.888575995302908				
	368	14	0.00165	0.06901	0.0	160.0	160.0	160.0	1.0777	0.0	1	-60.0001403060998	60.0001403060998	-42.189653572429165	-32.52504178733166	42.23371135037585	34.36772497284721				
	18	15	0.00358	0.04262	1.0944	1662.0	1662.0	1662.0	0	0	1	-60.0001403060998	60.0001403060998	274.03612084426993	-77.42006721002845	-271.35909287426966	-2.0374585196340576				
	15	165	0.00207	0.02474	0.664	831.0	831.0	831.0	0	0	1	-60.0001403060998	60.0001403060998	244.5075894381096	-19.14032883926962	-243.29425468881482	-33.87192708767467				
	374	15	0.0015	0.06188	0.0	250.0	250.0	250.0	1.1502	0.0	1	-60.0001403060998	60.0001403060998	-116.27223962895332	-52.87834799219642	116.53034581825928	63.52608865503123				
	16	18	0.00036	0.02519	0.0	500.0	500.0	500.0	1.0605	0.0	1	-60.0001403060998	60.0001403060998	230.84436962385465	31.904626234539563	-230.65366430251152	-18.560551110559988				
	16	73	0.00909	0.0624	0.11142	463.99999999999994	463.99999999999994	463.99999999999994	0	0	1	-60.0001403060998	60.0001403060998	26.291952762899868	9.352237104891078	-26.217832830776423	-21.55528841487299				
	17	18	0.00036	0.02519	0.0	500.0	500.0	500.0	1.0607	0.0	1	-60.0001403060998	60.0001403060998	311.52170755143925	20.90507760329162	-311.17680203102157	3.2287281170482123				
	17	74	0.00868	0.06405	0.09699	463.99999999999994	463.99999999999994	463.99999999999994	0	0	1	-60.0001403060998	60.0001403060998	83.31300828856413	-0.47784713310511523	-82.78476064380453	-6.637922008741843				
	20	18	0.00063	0.00749	0.39226	1427.0	1427.0	1427.0	0	0	1	-60.0001403060998	60.0001403060998	-115.69148011927912	67.23776739850787	115.82091742761394	-105.57397544570031				
	75	18	0.00219	0.02369	0.59584	1434.0	1434.0	1434.0	0	0	1	-60.0001403060998	60.0001403060998	26.896962867554073	-33.30177661701089	-26.881060864254714	-26.742189226000047				
	18	76	0.00137	0.01625	0.41184	1662.0	1662.0	1662.0	0	0	1	-60.0001403060998	60.0001403060998	-39.19499885079594	-15.960391044473468	39.21613998636019	-25.407947010883763				
	18	101	0.00231	0.02769	0.70144	1662.0	1662.0	1662.0	0	0	1	-60.0001403060998	60.0001403060998	-52.868692587272	-53.775671244688496	52.940244030780924	-16.717895245461108				
	124	19	0.01696	0.12366	0.19699	463.99999999999994	463.99999999999994	463.99999999999994	0	0	1	-60.0001403060998	60.0001403060998	25.306650148831373	7.273516976190879	-25.16197524053491	-28.564819570531753				
	425	19	0.00165	0.06818	0.0	160.0	160.0	160.0	1.0241	0.0	1	-60.0001403060998	60.0001403060998	-68.5764743220091	-2.2503600806057786	68.6470723765195	5.167557266374128				
	67	20	0.00331	0.03425	0.85888	831.0	831.0	831.0	0	0	1	-60.0001403060998	60.0001403060998	-14.855846146805085	-8.689004469465686	14.904365483164828	-79.62811364320952				
	447	20	0.00137	0.06119	-0.01504	250.0	250.0	250.0	1.0796	0.0	1	-60.0001403060998	60.0001403060998	-52.406605332544544	4.692894147826209	52.44353216163719	-1.5042788150688315				
	448	20	0.00137	0.06119	-0.01504	250.0	250.0	250.0	1.0923	0.0	1	-60.0001403060998	60.0001403060998	-48.30995368551088	-10.867469073135512	48.3435824744771	13.89462505977047				
	502	21	0.00165	0.07107	0.0	160.0	160.0	160.0	0.9922	0.0	1	-60.0001403060998	60.0001403060998	-73.83676853582341	29.833906338236872	73.92933998233127	-25.846601669561213				
	112	22	0.00465	0.02618	0.02962	362.0	362.0	362.0	0	0	1	-60.0001403060998	60.0001403060998	-140.20101458024808	62.88989019064737	141.16288915949724	-60.85794108091771				
	526	22	0.00165	0.06901	0.0	160.0	160.0	160.0	1.0685	0.0	1	-60.0001403060998	60.0001403060998	-17.65126165596663	-32.17797895395139	17.671707014710627	33.03309059451109				
	527	22	0.00165	0.06901	0.0	160.0	160.0	160.0	1.0424	0.0	1	-60.0001403060998	60.0001403060998	22.96245133565219	6.774346032890262	-22.954173762062176	-6.4281427883764675				
	37	23	0.01163	0.07031	0.1058	394.0	394.0	394.0	0	0	1	-60.0001403060998	60.0001403060998	12.566437894646349	-6.721580875325948	-12.54941015558233	-4.648511859293893				
	46	23	0.00837	0.04868	0.07348	457.0	457.0	457.0	0	0	1	-60.0001403060998	60.0001403060998	-20.093914537171447	-8.60922749959459	20.127019732851593	0.868306904022095				
	53	23	0.01122	0.06558	0.09835	274.0	274.0	274.0	0	0	1	-60.0001403060998	60.0001403060998	81.5055291766911	-6.440054419603464	-80.8265326643834	-0.31924620175308793				
	540	23	0.0014	0.0668	0.0	160.0	160.0	160.0	1.0182	0.0	1	-60.0001403060998	60.0001403060998	-73.17939019900618	-0.7817390673020449	73.24892308711414	4.099451157024886				
	54	24	0.00769	0.05727	0.08789	160.0	160.0	160.0	0	0	1	-60.0001403060998	60.0001403060998	35.53614116568254	-14.375186812075476	-35.442325782362346	5.300205170385813				
	545	24	0.00151	0.06715	0.0	160.0	160.0	160.0	1.0161	0.0	1	-60.0001403060998	60.0001403060998	-35.424932831306236	6.073673159403926	35.442325782362346	-5.300205170385813				
	41	25	0.00556	0.04145	0.0636	274.0	274.0	274.0	0	0	1	-60.0001403060998	60.0001403060998	71.28868888995125	-3.724617868089409	-71.03537433899594	-1.4591066368277388				
	53	25	0.00452	0.03368	0.05169	463.99999999999994	463.99999999999994	463.99999999999994	0	0	1	-60.0001403060998	60.0001403060998	-92.42707234678727	-4.789944530385299	92.77892454236515	1.709250415988146				
	54	25	0.00019	0.0014	0.00213	463.99999999999994	463.99999999999994	463.99999999999994	0	0	1	-60.0001403060998	60.0001403060998	71.12657964787485	12.837198706940164	-71.11762572630697	-13.007397798157399				
	564	25	0.00157	0.07808	0.0	160.0	160.0	160.0	1.0276	0.0	1	-60.0001403060998	60.0001403060998	-49.3372428558004	-10.925473987096677	49.37407552293775	12.757254018996994				
	38	26	0.00698	0.05196	0.07967	160.0	160.0	160.0	0	0	1	-60.0001403060998	60.0001403060998	60.16034057645921	-0.7848241085970147	-59.92672822573216	-6.076884803814193				
	568	26	0.00149	0.06616	0.0	160.0	160.0	160.0	1.013	0.0	1	-60.0001403060998	60.0001403060998	-59.87639223636065	-3.841831745546294	59.92672822573216	6.076884803814193				
	28	27	0.0	0.0001	0.0	876.0	876.0	876.0	0	0	1	-60.0001403060998	60.0001403060998	98.88212117761668	-5.023719299618973	-98.88212117761668	5.032644690031754				
	33	27	0.0024	0.01494	0.02253	160.0	160.0	160.0	0	0	1	-60.0001403060998	60.0001403060998	-74.73292825657383	-14.01811993980869	74.85940982999854	12.339417783154088				
	48	27	0.01213	0.06215	0.09371	362.0	362.0	362.0	0	0	1	-60.0001403060998	60.0001403060998	-118.81081272915443	8.325587722560703	120.41513241439854	-10.316107386292757				
	27	74	0.01116	0.07231	0.10367	304.0	304.0	304.0	0	0	1	-60.0001403060998	60.0001403060998	-96.39242106678041	-7.055955086893087	97.33671008079476	1.6427950088931693				
	47	28	0.00248	0.01798	0.02759	463.99999999999994	463.99999999999994	463.99999999999994	0	0	1	-60.0001403060998	60.0001403060998	-38.878134261556866	-1.7587703940068316	38.91232971726093	-1.0207250925385416				
	28	88	0.01488	0.08161	0.1148	362.0	362.0	362.0	0	0	1	-60.0001403060998	60.0001403060998	-137.7944508948776	6.044444392157514	140.38751076868147	-4.619904926698401				
	30	29	0.0	0.0001	0.0	876.0	876.0	876.0	0	0	1	-60.0001403060998	60.0001403060998	-35.935026695170784	-59.3036760906468	35.935026695170784	59.30808885403059				
	29	32	0.00034	0.02097	0.0	500.0	500.0	500.0	1.0619	0.0	1	-60.0001403060998	60.0001403060998	-391.37155183426614	-68.04697084435595	391.92673334924166	102.28860722387209				
	45	29	0.00545	0.04021	0.06699	463.99999999999994	463.99999999999994	463.99999999999994	0	0	1	-60.0001403060998	60.0001403060998	-18.541707312149423	-18.536451392958902	18.570426495041957	11.495442376263279				
	48	29	0.00574	0.04283	0.06573	463.99999999999994	463.99999999999994	463.99999999999994	0	0	1	-60.0001403060998	60.0001403060998	0.9242987196897869	-14.041602040663747	-0.918410149908553	6.951907333270592				
	613	29	0.00157	0.06775	0.0	160.0	160.0	160.0	1.0016	0.0	1	-60.0001403060998	60.0001403060998	-124.00536295036125	16.38551837931458	124.22836163795294	-6.762485841519498				
	46	30	0.00545	0.04021	0.06699	463.99999999999994	463.99999999999994	463.99999999999994	0	0	1	-60.0001403060998	60.0001403060998	-18.331381119777756	-18.3531160441823	18.359429933097708	11.307377729309273				
	49	30	0.00707	0.04541	0.06931	362.0	362.0	362.0	0	0	1	-60.0001403060998	60.0001403060998	0.6166248754632486	-13.478132822638683	-0.6104042298378746	5.996298098191063				
	32	31	0.0	0.0001	0.0	1593.0	1593.0	1593.0	0	0	1	-60.0001403060998	60.0001403060998	-627.822940912402	-130.2812840998214	627.822940912402	130.6904622770799				
	39	31	0.00176	0.02144	0.57344	1385.0	1385.0	1385.0	0	0	1	-60.0001403060998	60.0001403060998	87.72951536746929	-9.681610308998255	-87.58965038206077	-46.564915009241645				
	36	32	0.00167	0.0189	0.54176	498.00000000000006	498.00000000000006	498.00000000000006	0	0	1	-60.0001403060998	60.0001403060998	-234.92066295234153	-70.66537914424822	235.89620756316037	27.99267687594929				
...